/*--------------------------------*- C++ -*----------------------------------*\
| =========                 |                                                 |
| \\      /  F ield         | OpenFOAM: The Open Source CFD Toolbox           |
|  \\    /   O peration     | Version:  2312                                  |
|   \\  /    A nd           | Website:  www.openfoam.com                      |
|    \\/     M anipulation  |                                                 |
\*---------------------------------------------------------------------------*/
FoamFile
{
    version     2.0;
    format      ascii;
    arch        "LSB;label=32;scalar=64";
    class       polyBoundaryMesh;
    location    "constant/polyMesh";
    object      boundary;
}
// * * * * * * * * * * * * * * * * * * * * * * * * * * * * * * * * * * * * * //

8
(
    bottom1
    {
        type            wall;
        inGroups        1(wall);
        nFaces          100;
        startFace       27760;
    }
    bottom2
    {
        type            wall;
        inGroups        1(wall);
        nFaces          0;
        startFace       27860;
    }
    front
    {
        type            wall;
        inGroups        1(wall);
        nFaces          14000;
        startFace       27860;
    }
    back
    {
        type            wall;
        inGroups        1(wall);
        nFaces          14000;
        startFace       41860;
    }
    leftwall
    {
        type            patch;
        nFaces          140;
        startFace       55860;
    }
    rightwall
    {
        type            patch;
        nFaces          0;
        startFace       56000;
    }
    top
    {
        type            wall;
        inGroups        1(wall);
        nFaces          100;
        startFace       56000;
    }
    procBoundary0to1
    {
        type            processor;
        inGroups        1(processor);
        nFaces          140;
        startFace       56100;
        matchTolerance  0.0001;
        transform       unknown;
        myProcNo        0;
        neighbProcNo    1;
    }
)

// ************************************************************************* //
