/*--------------------------------*- C++ -*----------------------------------*\
| =========                 |                                                 |
| \\      /  F ield         | OpenFOAM: The Open Source CFD Toolbox           |
|  \\    /   O peration     | Version:  v2306                                 |
|   \\  /    A nd           | Website:  www.openfoam.com                      |
|    \\/     M anipulation  |                                                 |
\*---------------------------------------------------------------------------*/
FoamFile
{
    version     2.0;
    format      ascii;
    class       volScalarField;
    object      epsilon;
}
// * * * * * * * * * * * * * * * * * * * * * * * * * * * * * * * * * * * * * //

dimensions      [0 2 -3 0 0 0 0];

internalField   uniform 0.1;

boundaryField
{
    bottom1
    {
        type            epsilonWallFunction;
        value           uniform 0.1;
    }
    bottom2
    {
        type            epsilonWallFunction;
        value           uniform 0.1;
    }

    front
    {
        type            epsilonWallFunction;
        value           uniform 0.1;
    }
    back
    {
        type            epsilonWallFunction;
        value           uniform 0.1;
    }

    leftwall
    {
        type            epsilonWallFunction;
        value           uniform 0.1;
    }

    rightwall
    {
        type            epsilonWallFunction;
        value           uniform 0.1;
    }
    top
    {
        type            inletOutlet;
        inletValue      uniform 0.1;
        value           uniform 0.1;
    }

}


// ************************************************************************* //
